44
Created by MSTRJ
C 1.78394e-289 -3.11404e+304 4.63417e-179
C -5.35432e-28 1.23279e-141 -2.33294e+275
C 5.48696e-166 3.36324e-128 4.03978e+292
C 8.75602e+130 2.81624e+97 -1.39582e-138
C 3.48881e-173 -4.58947e-44 -1.01808e+170
C 1.76277e+296 -6.89955e-126 6.92998e+162
C -9.36176e-07 1.64114e+260 -1.51445e-66
C -2.32077e+39 3.44223e+94 3.31313e+92
C 2.00722e-29 1.04272e+22 3.5021e+33
C -300380 -9.6162e+120 1.69132e-201
C 2.35859e-220 6.52783e+50 7.29148e-34
C 1.78394e-289 -3.74897e-149 5.78482e-76
C -5.35432e-28 -4.58702e-254 -5.297e-147
C 5.48696e-166 1.47118e-125 4.97554e-303
C 8.75602e+130 -1.10893e+220 -8.48899e-82
C 3.48881e-173 -8.1022e-16 -4.64908e+201
C 1.76277e+296 -9.66824e-57 2.31168e+39
C -9.36176e-07 7.8607e+302 -4.52621e+257
C -2.32077e+39 -3.87054e+217 -1.52927e+28
C 2.00722e-29 2.2852e+243 -5.96547e+219
C -300380 -6.66215e+228 -2.01965e+82
C 2.35859e-220 -2.96652e+88 1.05754e+236
C 1.78394e-289 -3.11404e+304 4.63417e-179
C -5.35432e-28 1.23279e-141 -2.33294e+275
C 5.48696e-166 3.36324e-128 4.03978e+292
C 8.75602e+130 2.81624e+97 -1.39582e-138
C 3.48881e-173 -4.58947e-44 -1.01808e+170
C 1.76277e+296 -6.89955e-126 6.92998e+162
C -9.36176e-07 1.64115e+260 -1.51445e-66
C -2.32077e+39 3.44223e+94 3.31313e+92
C 2.00722e-29 1.04272e+22 3.5021e+33
C -300380 2.27799e+62 -2.3505e-88
C 2.35859e-220 -8.54067e-295 -5.39753e-256
C 1.78394e-289 -6.45845e-279 -6.90411e-214
C -5.35432e-28 -4.3239e+279 7.57618e-143
C 5.48696e-166 1.0854e-32 -8.44426e+13
C 8.75602e+130 -1.76364e-194 5.04414e-208
C 3.48881e-173 -1.38145e-21 -1.34e+158
C 1.76277e+296 -2.13966e-245 5.88457e+288
C -9.36176e-07 1.20558e-234 -2.82141e+70
C -2.32077e+39 -5.24805e-192 4.1598e+235
C 2.00722e-29 18789.4 -2.17219e+108
C 7.47473e-312 7.48534e-312 1.04402e-311
C -6.66215e+228 -2.01965e+82 0
44
Created by MSTRJ
C 1.67418e-270 3.59895e+122 -5.9117e+201
C -5.21287e+177 -1.50502e-180 2.22622e-208
C 1.35579e-291 -2.13914e+243 -1.03076e-141
C -3.1846e-176 5.55791e+17 -1.65571e+187
C 2.51875e+218 1.12514e-83 -9.07593e-34
C -2.73799e+68 1.62404e+224 4.14016e+23
C 2.85957e+136 -1.67368e-109 2.39068e+117
C -2.70549e+293 1.89582e-28 -7.70611e-157
C 8.087e-200 -1.87561e-97 3.1119e-307
C 4.35924e+215 1.87449e+302 2.68519e+259
C 8.00258e-45 4.08951e-165 1.32457e+45
C 1.67418e-270 8.07013e+233 1.14143e+57
C -5.21287e+177 -2.95737e-226 2.38765e+17
C 1.35579e-291 -1.13502e-14 -1.07646e-12
C -3.1846e-176 -3.80597e+288 -2.30924e-253
C 2.51875e+218 1.07211e+289 -8.76297e+203
C -2.73799e+68 -2.7817e-157 5.31872e-300
C 2.85957e+136 -9.85841e-191 3.23787e+84
C -2.70549e+293 2.99257e-220 -6.04921e-43
C 8.087e-200 67.4216 -4.30339e+19
C 4.35924e+215 -3.65248e-36 9.27564e+302
C 8.00258e-45 7.54011e+192 6.57549e+195
C 1.67418e-270 3.59895e+122 -5.9117e+201
C -5.21287e+177 -1.50502e-180 2.22622e-208
C 1.35579e-291 -2.13914e+243 -1.03076e-141
C -3.1846e-176 5.55791e+17 -1.65571e+187
C 2.51875e+218 1.12514e-83 -9.07593e-34
C -2.73799e+68 1.62404e+224 4.14016e+23
C 2.85957e+136 -1.67368e-109 2.39068e+117
C -2.70549e+293 1.89582e-28 -7.70611e-157
C 8.08701e-200 -3.85317e-41 -2.16891e-270
C 4.35924e+215 -5.90298e-229 4.68649e+13
C 8.00259e-45 -1.52507e-119 3.32425e-94
C 1.67418e-270 -2.71793e-34 -2.98128e-88
C -5.21287e+177 -9.69561e-58 -3.62471e+119
C 1.35579e-291 -5.69655e-100 1.68665e+186
C -3.1846e-176 3.06592e-215 -8.40288e-103
C 2.51875e+218 -1.03454e-215 1.47853e+294
C -2.73799e+68 -6.89377e-151 2.09221e-266
C 2.85957e+136 -1.04287e+242 1.21324e-172
C -2.70549e+293 -5.63169e+101 1.25782e+171
C 7.47472e-312 7.47475e-312 1.04402e-311
C 67.4215 -4.30339e+19 0
C -3.65248e-36 9.27563e+302 0
44
Created by MSTRJ
C -4.62293e-71 -1.46852e+70 -0.00310594
C -2.72278e+63 6.87306e-257 -3.09162e+48
C -3.27111e-246 -2.42581e+151 -3.04413e+39
C -13739.2 -4.58625e-268 -4.4417e+71
C 6.65356e+62 4.05013e+132 0.000121193
C 1.9394e-295 -1.92907e+288 -9.92943e-281
C -4.49673e+271 2.08763e+63 3.10399e-131
C -5.57213e+252 -3.92852e+234 -3.0359e+262
C 2.3224e-302 -0.0226173 -1.2821e-291
C -1.08633e+40 4.36506e-190 -1.19622e+241
C -1.15901e-120 -6.96809e-45 5.84777e+255
C -4.62293e-71 -1.25343e-253 -1.06607e-18
C -2.72278e+63 1.55158e-108 9.19817e+169
C -3.27111e-246 5.14577e-213 -1.38922e+225
C -13739.2 7.31404e+194 -1.41001e-40
C 6.65357e+62 -2.75054e-24 -1.02171e+222
C 1.9394e-295 -1.40661e-144 -3.12716e+259
C -4.49673e+271 -1.28931e-41 4.59077e+253
C -5.57213e+252 -1.33527e-188 1.53144e-24
C 2.3224e-302 1.43836e-44 6.73208e+41
C -1.08633e+40 -9.66997e+85 6.16835e-81
C -1.15901e-120 1.35201e-129 5.69309e-277
C -4.62293e-71 -1.46852e+70 -0.00310594
C -2.72278e+63 6.87306e-257 -3.09162e+48
C -3.27111e-246 -2.42582e+151 -3.04413e+39
C -13739.2 -4.58625e-268 -4.4417e+71
C 6.65357e+62 4.05014e+132 0.000121193
C 1.9394e-295 -1.92907e+288 -9.92944e-281
C -4.49673e+271 2.08763e+63 3.10399e-131
C -5.57212e+252 -1.29241e-76 -1.01739e-283
C 2.3224e-302 4.16924e+29 -2.57817e+270
C -1.08633e+40 -1.27288e-05 -2.60502e-262
C -1.15901e-120 -1.39481e-247 403810
C -4.62293e-71 5.09132e-24 -1.63449e-166
C -2.72278e+63 -2.07805e+262 -1.42714e+84
C -3.27111e-246 2.85339e+135 -2.22287e-246
C -13739.2 -1.05406e+307 -2.36851e+19
C 6.65356e+62 3.00255e-52 -3.29481e-243
C 1.9394e-295 -2.80023e-176 -2.98678e-305
C -4.49673e+271 5.63556e+17 7.24343e-275
C 7.47474e-312 7.47472e-312 1.04402e-311
C -1.33527e-188 1.53144e-24 0
C 1.43836e-44 6.73208e+41 0
C -9.66997e+85 6.16835e-81 0
44
Created by MSTRJ
C 2.37855e-124 1.85839e+149 1.15407e+173
C 1.40183e-74 3.94817e+161 4.3036e+248
C 9.1502e+105 2.53534e+124 2.15862e-194
C 9.46019e-181 8.22256e+140 -5.68937e-191
C 7.44789e-295 1.99952e-183 7.55311e+28
C -3.42462e+252 -9.29309e+20 -1.3895e-124
C 5.73634e-209 -3.75544e-137 4.98705e-94
C -8.87493e+76 0.0148753 6.16825e+299
C 3.57088e+24 1.2661e+137 -1.59404e-155
C 1.60079e-287 8.47487e+198 -4.18686e+105
C -6.99599e+255 -8.44314e-17 -9.84538e-130
C 2.37855e-124 3.91098e+175 -1.82625e-122
C 1.40183e-74 1.15167e+296 1.12368e-290
C 9.1502e+105 -2.38639e+169 9.75698e+215
C 9.46019e-181 -1.97207e-199 -7.293e-184
C 7.44789e-295 -8.26163e+123 -2.89552e+150
C -3.42462e+252 -2.74722e-268 -1.0859e-150
C 5.73634e-209 -1.43921e-87 -2.904e-11
C -8.87493e+76 -1.46276e+56 3.91298e+141
C 3.57088e+24 2.66826e-249 -2.93812e-134
C 1.60079e-287 4.18463e+242 3.45914e-151
C -6.99599e+255 -6.63545e+153 -1.0838e-82
C 2.37855e-124 1.85839e+149 1.15407e+173
C 1.40183e-74 3.94817e+161 4.3036e+248
C 9.1502e+105 2.53534e+124 2.15862e-194
C 9.46019e-181 8.22256e+140 -5.68937e-191
C 7.44789e-295 1.99953e-183 7.55311e+28
C -3.42462e+252 -9.29309e+20 -1.3895e-124
C 5.73634e-209 7.43302e+131 -1.06266e+143
C -8.87493e+76 2.27429e+188 8.38827e-10
C 3.57088e+24 -2.58913e+107 -1.12869e+266
C 1.60079e-287 -74.4747 -1.61838e-255
C -6.99599e+255 -8.15352e+55 -3.1026e+214
C 2.37855e-124 -1.7463e+95 -8.8156e+199
C 1.40183e-74 2.70519e-151 4.78684e+75
C 9.1502e+105 -1.24354e+120 1.88231e-273
C 9.46019e-181 -5.00498e-174 1.67685e-294
C 7.44789e-295 3.43784e-282 1.1033e+272
C -3.42462e+252 -3.4723e-105 -2.42531e+256
C 7.47473e-312 7.48535e-312 1.04402e-311
C -1.43921e-87 -2.904e-11 0
C -1.46276e+56 3.91298e+141 0
C 2.66826e-249 -2.93812e-134 0
C 4.18463e+242 3.45914e-151 0
44
Created by MSTRJ
C 2.23794e+250 -2.52292e-67 -4.55177e+75
C 4.27501e-76 -4.34143e-184 -7.54066e-97
C 1.08255e+118 -1.72852e+301 1.23116e-81
C 1.1744e-231 -1.28088e+88 -5.53764e-198
C -4.37113e-221 1.79459e-263 -3.71444e+230
C -5.71621e-63 -3.17749e-87 -4.47968e-295
C -8.9555e+150 -2.34358e+296 1.04174e+64
C 6.35678e+213 3.80369e-67 -6.69739e-236
C 1.45294e+78 -5.04371e+96 -2.615e-20
C -8.89243e-126 -1.5001e-52 -4.83334e+174
C -8.52331e+207 -1.18302e-138 -8.60136e-234
C 2.23794e+250 3.901e-116 2.04317e+33
C 4.27502e-76 -2.08052e+206 -8.33512e+103
C 1.08255e+118 -1.5572e+142 -6.22764e+175
C 1.1744e-231 8.76749e-39 -4.18225e+105
C -4.37113e-221 -2.35978e-142 5.08573e-109
C -5.71621e-63 -1.66407e-09 1.44698e+154
C -8.9555e+150 -0.000546574 1.72871e+283
C 6.35678e+213 4.72026e-113 3.80689e+124
C 1.45294e+78 8.69311e+213 -1.38286e+53
C -8.89243e-126 -3.91555e+60 4.38861e-81
C -8.52331e+207 4.72755e-256 1.46923e+35
C 2.23794e+250 -2.52292e-67 -4.55177e+75
C 4.27502e-76 -4.34143e-184 -7.54066e-97
C 1.08255e+118 -1.72852e+301 1.23116e-81
C 1.1744e-231 -1.28088e+88 -5.53765e-198
C -4.37113e-221 1.79459e-263 -3.71444e+230
C -5.71621e-63 -2.40943e-303 -1.55541e-305
C -8.9555e+150 2.89446e-53 -5.26615e-241
C 6.35677e+213 1.73193e+59 -8.01486e+296
C 1.45294e+78 -1.66309e-282 -6.0768e+16
C -8.89242e-126 -7.12669e-26 2.69523e+194
C -8.52331e+207 -8.22134e+250 3.42896e+123
C 2.23794e+250 2.14858e-113 -1.47053e-36
C 4.27501e-76 4.68933e-239 1.97387e-122
C 1.08255e+118 1.62866e+274 1.39401e+194
C 1.1744e-231 5.50184e+196 -1.52361e-46
C -4.37113e-221 3.12637e+176 -7.53878e-248
C 7.47474e-312 7.47473e-312 1.04402e-311
C -1.66406e-09 1.44698e+154 0
C -0.000546573 1.72871e+283 0
C 4.72026e-113 3.80689e+124 0
C 8.69311e+213 -1.38286e+53 0
C -3.91555e+60 4.38861e-81 0
44
Created by MSTRJ
C -1.1308e+50 3.45853e-76 -3.16459e+84
C 3.36878e-31 6.29929e+187 4.28064e+23
C 6.28927e-239 -1.52198e-241 -9.8205e-300
C -6.15434e-22 3.71346e-73 9.13449e+259
C 4.39019e+239 4.17662e-222 6.84523e+134
C -5.60208e+224 1.27211e-243 1.13112e-06
C -4.96279e+294 1.35379e-241 7.48566e-265
C 7.78341e-96 -3.48193e-264 2.80546e+192
C -2.37273e-153 -4.76581e+55 3.16993e-94
C 6.34324e+222 2.643e+270 2.44143e-63
C -1.30792e-275 2.87105e+54 2.32983e+101
C -1.1308e+50 -9.60627e+81 3.74123e+155
C 3.36878e-31 1.19145e-137 6.84695e+33
C 6.28927e-239 -1.49312e-251 5.64381e+165
C -6.15434e-22 -1.82021e+106 -5.55577e-208
C 4.39019e+239 1.25089e-56 1.26849e-117
C -5.60208e+224 1.25544e-142 -5529.77
C -4.96279e+294 1.05366e-228 2.27652e-217
C 7.78341e-96 -2.32673e+303 2.0946e-286
C -2.37273e-153 2.36473e-181 7.23831e+187
C 6.34324e+222 -4.24844e-33 -2.16441e+203
C -1.30792e-275 1.91772e-247 2.49387e+57
C -1.1308e+50 3.45853e-76 -3.16459e+84
C 3.36878e-31 6.29929e+187 4.28064e+23
C 6.28927e-239 -1.52198e-241 -9.8205e-300
C -6.15434e-22 3.71346e-73 9.13449e+259
C 4.39019e+239 -6.97644e-08 4.9969e+271
C -5.60208e+224 -5.21416e+236 1.75853e-72
C -4.96279e+294 1.72772e-254 8.76594e+171
C 7.7834e-96 2.71481e-209 8.3852e+102
C -2.37273e-153 -1.81283e+242 -8.80809e-41
C 6.34324e+222 5.03455e-44 2.60392e-25
C -1.30792e-275 -2.78366e-144 2.10735e+263
C -1.1308e+50 -1.88471e+170 4.17356e-32
C 3.36878e-31 -5.28981e+231 -2.77348e+246
C 6.28927e-239 -2.37235e+228 -3.8772e+89
C -6.15434e-22 3.3251e-12 -1.1064e+32
C 7.47474e-312 7.47474e-312 1.04402e-311
C 1.25089e-56 1.26849e-117 0
C 1.25544e-142 -5529.77 0
C 1.05366e-228 2.27652e-217 0
C -2.32673e+303 2.09459e-286 0
C 2.36473e-181 7.23831e+187 0
C -4.24844e-33 -2.16441e+203 0
44
Created by MSTRJ
C -4.70919e-83 -2.17566e+41 1.45922e-122
C 3.04674e+118 -1.09694e-97 -7.79966e-166
C 2.80416e-76 1.26459e+187 5.06212e+122
C 5.7615e+61 2.93118e-305 5.37617e+281
C 1.81961e+50 2.17958e+220 -9.4025e+115
C 1.78747e-221 -3.79829e-280 1.05119e+160
C -2.89381e-86 -1.08622e+268 2.29375e-80
C -2.32689e-120 -3.99702e+83 2.44828e+141
C -7.8628e-284 9.10543e+79 3.15818e+253
C 2.89812e-211 -3.49098e-168 -2.52476e-213
C -1.08491e+233 5.36391e-166 -6.04884e-189
C -4.70919e-83 1.80308e+188 225.545
C 3.04674e+118 -1.08216e-180 6.30615e-85
C 2.80416e-76 -7.64803e-48 -8.35282e-126
C 5.7615e+61 -2.73226e-63 2.77264e-130
C 1.81961e+50 -3.03023e-98 -2.33643e+291
C 1.78747e-221 3.11995e-278 9.61801e-44
C -2.89381e-86 -1.64906e+93 1.39573e-163
C -2.32689e-120 1.83589e-237 4.71007e-53
C -7.8628e-284 2.62056e-43 -5583.69
C 2.89812e-211 -1.11206e-147 7.51329e+109
C -1.08491e+233 4.02751e+209 1.23263e+122
C -4.70919e-83 -2.17566e+41 1.45922e-122
C 3.04674e+118 -1.09694e-97 -7.79966e-166
C 2.80416e-76 1.26459e+187 5.06212e+122
C 5.7615e+61 7.26338e-259 2.49129e-99
C 1.81961e+50 4.92103e-79 6.6458e-295
C 1.78746e-221 -7.8766e+300 8.62743e-13
C -2.89381e-86 2.12398e-174 1.28869e-132
C -2.32689e-120 1.63521e-30 4.13476e-22
C -7.8628e-284 3.15627e+202 4.22772e+171
C 2.89812e-211 -4.56392e-44 8.4592e-69
C -1.08491e+233 -1.69836e-156 -1.041e-62
C -4.70919e-83 -7.84584e+250 1.26475e-91
C 3.04674e+118 8.36911e-38 -6.94534e-135
C 2.80416e-76 2.30803e+284 4.54616e+153
C 7.47471e-312 7.47474e-312 1.04402e-311
C -2.73226e-63 2.77264e-130 0
C -3.03023e-98 -2.33643e+291 0
C 3.11994e-278 9.618e-44 0
C -1.64906e+93 1.39572e-163 0
C 1.83589e-237 4.71007e-53 0
C 2.62056e-43 -5583.69 0
C -1.11206e-147 7.51329e+109 0
44
Created by MSTRJ
C -9.89641e-69 -3.53745e+257 1.54888e+23
C 5.25942e-252 -1.23144e-239 1.46871e-249
C 1.61622e+62 1.25489e+270 2.35041e+37
C -3.4309e+304 1.14594e+189 9.88081e+256
C -2.51235e-53 -0.00188479 -1.4888e-142
C -7.01216e+171 -1.15302e+82 -1.02372e+203
C -7.84314e+214 4.08816e+40 9.80704e+238
C 2.41604e+110 7.596e+162 1.64413e-52
C -9.43821e-93 -4.78773e-183 -2.00178e-73
C -6.63137e-40 5.84025e+122 5.13674e+247
C -3.59075e-185 1.64876e-252 6.84592e+64
C -9.89641e-69 -5.69489e-196 -8.68647e-108
C 5.25942e-252 5.21893e+70 3.60092e+83
C 1.61622e+62 5.37105e-272 -4.00399e-261
C -3.4309e+304 7.35595e+21 6.06977e+102
C -2.51235e-53 7.0002e+83 -8.76459e-152
C -7.01216e+171 -1.99914e+210 -1.44355e-65
C -7.84314e+214 -2.21329e-217 -1.07554e-210
C 2.41604e+110 -8.05925e-50 2.08292e-283
C -9.43821e-93 -2.28467e+231 1.70317e-134
C -6.63137e-40 4.42382e-244 1.28902e-69
C -3.59075e-185 -1.07967e-296 -4.77905e-161
C -9.89641e-69 -3.53745e+257 1.54888e+23
C 5.25941e-252 -1.23144e-239 1.46871e-249
C 1.61622e+62 1.39052e-57 -6.95088e-300
C -3.4309e+304 1.51109e+24 1.01938e+64
C -2.51235e-53 5.57159e-90 -1.50524e-190
C -7.01216e+171 -1.56096e+131 -2.3914e-104
C -7.84314e+214 4.33306e+172 -1.79682e-249
C 2.41604e+110 -1.09158e+196 -1.15427e+295
C -9.43821e-93 1.11462e-221 2.81588e-173
C -6.63137e-40 3.07957e+90 2.22399e-108
C -3.59075e-185 5.15548e-108 -8.03453e-200
C -9.89641e-69 9.4826e-209 7.26716e-182
C 5.25941e-252 4.33205e-165 2.47613e-288
C 7.48531e-312 7.47474e-312 1.04402e-311
C 5.37105e-272 -4.00399e-261 0
C 7.35595e+21 6.06977e+102 0
C 7.00019e+83 -8.76459e-152 0
C -1.99914e+210 -1.44355e-65 0
C -2.21329e-217 -1.07554e-210 0
C -8.05926e-50 2.08292e-283 0
C -2.28466e+231 1.70317e-134 0
C 4.42382e-244 1.28902e-69 0
44
Created by MSTRJ
C 6.56249e+109 -9.3747e+185 5.09469e+70
C -4.42581e-275 1.07819e-293 -4.66354e-213
C 5.41322e-124 -3.27639e-276 -2.11222e+69
C 2.70051e+296 -2.53883e+129 -2.03597e+142
C 2.46063e-204 -8.25915e+221 4.17116e-116
C 5.76819e+33 -5.4059e-67 0.000121915
C 3.99074e+285 -1.16086e+07 -1.74193e-171
C -4.49994e-189 7.34447e+115 -4.97649e+72
C 9.80938e+158 4.87692e-07 2.17827e+236
C -9.92909e-287 -1.74571e+162 5.37548e+210
C -3.28235e+51 2.52618e+213 -3.01282e+280
C 6.56249e+109 0.238547 9.16108e+14
C -4.42581e-275 -1.61094e-151 -2.3825e+208
C 5.41322e-124 -8.02607e+196 -9.3462e-309
C 2.70051e+296 3.24913e-171 1.10161e+297
C 2.46063e-204 -3.0487e-280 -4.30191e+126
C 5.76819e+33 2.95003e-91 1.68079e-63
C 3.99074e+285 -2.05093e+201 -4.21905e+49
C -4.49994e-189 6.293e-288 2.35913e-29
C 9.80938e+158 -4.1484e+40 1.98438e+289
C -9.92909e-287 1.55849e-105 -5.95346e-149
C -3.28235e+51 4.94868e-54 2.78654e+162
C 6.56249e+109 -9.3747e+185 5.09469e+70
C -4.42581e-275 3.86026e-82 -1.31367e-189
C 5.41322e-124 4.38502e-132 -3.30155e+169
C 2.70051e+296 -1.45013e+275 -4.96887e+163
C 2.46063e-204 -1.35035e-95 1.72922e-230
C 5.76819e+33 -5.19868e+66 2.32356e+106
C 3.99074e+285 1.17445e+148 -5.9578e+218
C -4.49994e-189 -2.56171e+217 -7.27222
C 9.80938e+158 -5.95462e-54 -6.65196e+159
C -9.92909e-287 9.33312e+265 -2.04904e+249
C -3.28235e+51 -5.19035e+28 -1.20372e-285
C 6.56249e+109 5.63719e+178 -3.37895e+50
C 7.47471e-312 7.47474e-312 1.04402e-311
C -1.61094e-151 -2.3825e+208 0
C -8.02606e+196 -9.34619e-309 0
C 3.24913e-171 1.1016e+297 0
C -3.0487e-280 -4.30191e+126 0
C 2.95003e-91 1.68079e-63 0
C -2.05093e+201 -4.21905e+49 0
C 6.293e-288 2.35913e-29 0
C -4.1484e+40 1.98438e+289 0
C 1.55849e-105 -5.95346e-149 0
44
Created by MSTRJ
C -8.05848e+243 -4.97791e-186 -2.53491e-122
C 3.53663e+139 2.41508e-213 -6.74747e+40
C 3.16085e-171 7.80986e-198 9.99651e-290
C -2.13254e+15 -2.33802e+50 -2.46401e-262
C -6.53409e-229 8.87004e+179 -1.28646e-75
C -4.04531e-140 2.69665e+124 9.91797e+194
C 9.66784e-128 7.44444e-90 6.12161e-76
C 1.22454e+69 1.45501e-177 1.6774e-301
C -2.36005e+113 -5.92348e+181 1.71086e+151
C 4.98022e+250 7.36189e-216 -1.29332e-130
C -1.33917e-101 2.89127e+76 2.59966e+37
C -8.05848e+243 8.29025e+254 4.80435e+206
C 3.53663e+139 4.63584e+145 8.91814e-156
C 3.16085e-171 5.25167e+207 -2.23191e-246
C -2.13254e+15 1.38567e+237 6.08802e+35
C -6.53409e-229 6.0311e+40 -1.60713e-269
C -4.04531e-140 2.7398e+161 5.54901e-160
C 9.66784e-128 -1.46151e+23 -2.2185e-226
C 1.22454e+69 6.08149e+288 -8.50909e+301
C -2.36005e+113 2.42637e+55 -1.60748e+282
C 4.98022e+250 -4.36197e-38 8.11916e+239
C -1.33917e-101 1.15797e+69 -8.46282e-174
C -8.05848e+243 -9.03661e-10 1.37199e+222
C 3.53663e+139 -3.98451e+45 -8.74073e+140
C 3.16085e-171 -3.69529e+14 1.44694e+284
C -2.13254e+15 1.33554e+136 2.38144e+229
C -6.53408e-229 9.28694e-124 6.40848e+198
C -4.04531e-140 1.10194e-160 -5.36445e-68
C 9.66784e-128 -3.79038e-202 4.97025e-110
C 1.22454e+69 -1.09858e-26 -3118.61
C -2.36005e+113 1.9929e-127 -1.81455e+20
C 4.98022e+250 -4.15361e+50 2.01863e+226
C -1.33917e-101 8.02755e+83 -7.82062e+247
C 7.47473e-312 7.47472e-312 1.04402e-311
C 8.29025e+254 4.80435e+206 0
C 4.63584e+145 8.91815e-156 0
C 5.25166e+207 -2.23191e-246 0
C 1.38567e+237 6.08802e+35 0
C 6.03109e+40 -1.60713e-269 0
C 2.73979e+161 5.54901e-160 0
C -1.46151e+23 -2.21849e-226 0
C 6.08149e+288 -8.50909e+301 0
C 2.42637e+55 -1.60748e+282 0
C -4.36197e-38 8.11916e+239 0
44
Created by MSTRJ
C 4.95836e+272 -6.75007e+120 -1.25378e-256
C -7.79443e+278 0.0562849 -3.07268e+226
C -1.6344e-129 -1.25184e+245 8.30563e-88
C -2.32925e+278 -1.00246e+271 9.85601e-173
C -1.27842e+35 2.50743e+178 -1.22674e-88
C 1.07151e-10 -7.39432e+224 -2.13654e+173
C 1.42268e-118 1.25238e-213 -6.6188e+109
C 9.15561e-244 -1.20117e-286 -6.63395e+239
C 6.02628e+153 -4.05605e-193 5.54789e+254
C -6.55759e+93 4.16149e+296 -7.37837e+170
C 2.20268e-222 1.27627e-235 3.85165e-260
C 4.95836e+272 -2.72781e+114 7.9176e+220
C -7.79443e+278 -7.98391e+183 3.65373e-155
C -1.6344e-129 -3.9164e-219 0.00111048
C -2.32925e+278 3.22978e-233 -1.41554e+149
C -1.27842e+35 6.20551e+111 7.84361e+304
C 1.07151e-10 1.80928e+11 3.49357e+13
C 1.42268e-118 -4.02656e+109 1.76997e-213
C 9.15561e-244 -3.85372e-194 -1.73137e-148
C 6.02628e+153 1.07427e+40 -1.03423e-254
C -6.55759e+93 7.66635e-288 5.92957e-183
C 2.20268e-222 -1.24012e+290 7.47446e-90
C 4.95836e+272 -1.34395e+30 8.682e-202
C -7.79443e+278 2.58459e+291 -1.38351e+40
C -1.6344e-129 2.22397e+13 -4.1294e+191
C -2.32925e+278 2.48825 8.23524e-194
C -1.27842e+35 2.70228e-262 8.70956e-118
C 1.07151e-10 -1.03578e-178 2.38214e+47
C 1.42268e-118 1.2344e+81 -6.51704e-19
C 9.1556e-244 3.88916e-41 6.47599e+46
C 6.02628e+153 1.18726e+232 -6.93167e+221
C -6.55758e+93 3.73e-07 -2.07337e+12
C 7.47472e-312 7.47475e-312 1.04402e-311
C 1.27627e-235 3.85165e-260 0
C -2.72782e+114 7.91759e+220 0
C -7.98391e+183 3.65373e-155 0
C -3.9164e-219 0.00111048 0
C 3.22978e-233 -1.41554e+149 0
C 6.20551e+111 7.8436e+304 0
C 1.80928e+11 3.49357e+13 0
C -4.02656e+109 1.76997e-213 0
C -3.85372e-194 -1.73137e-148 0
C 1.07427e+40 -1.03423e-254 0
C 7.66635e-288 5.92958e-183 0
44
Created by MSTRJ
C 3.36981e-135 -2.12839e-213 5.43826e+95
C 2.27081e-270 1.34699e+97 1.62462
C -3.89192e-203 2.29392e-108 5.12248e-301
C -5.48301e+109 -4.99246e+140 -4.47615e-200
C -63.8269 5.09729e+153 -1.03596e-25
C -4.30442e+137 1.15014e-262 -4.92878e+169
C -3.04666e+205 1.09922e+256 2.17975e-209
C 6.79804e-135 4.19764e+25 1.40672e-224
C -1.99102e+24 -3.16977e-63 2.00898e+202
C -8.23011e-140 -1.04908e+119 -1.49255e+160
C 4.98854e+86 8.18257e+179 -8.17112e-283
C 3.36981e-135 2.79476e+291 -2.22687e+48
C 2.27081e-270 1.71259e-50 4.08568e+30
C -3.89192e-203 2.79727e-206 -2.20746e-108
C -5.48301e+109 -8.26503e-41 -4.90589e+283
C -63.8269 -6.64587e-147 -4.35505e-240
C -4.30442e+137 2.73877e-134 2.8065e+153
C -3.04666e+205 -6.90257e-168 3.08803e+89
C 6.79804e-135 -1.87399e-190 -1.21306e+198
C -1.99102e+24 -1.48284e+237 7.6438e-97
C -8.2301e-140 -2.16966e-35 -4.55632e-11
C 4.98853e+86 -1.88863e-18 1.33428e+63
C 3.36981e-135 3.86406e+48 -9.65447e-53
C 2.27081e-270 4.80312e+23 -1.1572e+139
C -3.89192e-203 -3.58928e-57 3.82967e+123
C -5.483e+109 1.1355e+93 4.76727e-79
C -63.8269 1.23789e-18 -2.64851e+189
C -4.30442e+137 -1.26253e-205 -1.2592e-200
C -3.04666e+205 2.41227e+196 1.53541e-184
C 6.79804e-135 3.67989e-166 5.01472e-30
C -1.99102e+24 2.5914e-102 -7.08502e-266
C 7.47472e-312 7.48534e-312 1.04402e-311
C -1.04908e+119 -1.49256e+160 0
C 8.18257e+179 -8.17112e-283 0
C 2.79477e+291 -2.22687e+48 0
C 1.71259e-50 4.08568e+30 0
C 2.79728e-206 -2.20746e-108 0
C -8.26503e-41 -4.9059e+283 0
C -6.64587e-147 -4.35505e-240 0
C 2.73877e-134 2.80649e+153 0
C -6.90257e-168 3.08803e+89 0
C -1.87399e-190 -1.21306e+198 0
C -1.48284e+237 7.6438e-97 0
C 3.52098e-130 8.20307e+74 -25.613
44
Created by MSTRJ
C -3.02782e-263 1.43554e+218 7.41782e+193
C 7.42841e+57 2.01746e-123 8.97147e+157
C -1.12866e-283 -5.04521e-247 -8.92875e+234
C -1.01799e+12 -1.43119e+26 9.84766e-225
C -1.8336e+307 6.76159e-226 -9.16084e+22
C 1.66712e-77 1.34497e-129 6.32134e-283
C 3.25205e-306 6.87118e-299 -7.10268e-190
C 1.58652e+246 3.05423e+88 -5.95852e+18
C -7.87863e-206 5.13789e-08 -5.67561e-269
C 8.44655e-268 -6.1759e+134 1.50092e-108
C -7.62662e-286 8.48515e+10 8.8994e-220
C -3.02782e-263 -8.63606e-215 -1.1338e+191
C 7.42841e+57 2.70494e-251 -1.45906e-98
C -1.12866e-283 -3.66391e-129 -8.52325e+108
C -1.01799e+12 -2.38647e-272 8.88207e+104
C -1.8336e+307 -2.28499e+132 8.54541e+277
C 1.66712e-77 2.67861e-292 2.8929e+25
C 3.25205e-306 -3.18169e+213 -3.06e-233
C 1.58652e+246 4.02857e-83 5.74084e-76
C -7.87862e-206 1.59295e+21 -1.33043e+275
C 8.44655e-268 6.55187e+95 -4.528e+13
C -7.62662e-286 -7.54768e+216 1.17431e+244
C -3.02782e-263 -6.34639e-175 -1.65385e-116
C 7.42841e+57 3.0208e-289 -2.44089e-290
C -1.12866e-283 -5.0067e+83 -8.57413e+171
C -1.01799e+12 3.84174e-247 1.03175e-299
C -1.8336e+307 1.19247e-111 -3.23709e+206
C 1.66712e-77 -7.39937e+239 2.52259e+109
C 3.25204e-306 4.64281e-194 6.54673e-25
C 1.58652e+246 4.34383e-90 1.05768e+280
C 7.47473e-312 7.47473e-312 1.04402e-311
C 5.13788e-08 -5.67561e-269 0
C -6.17589e+134 1.50092e-108 0
C 8.48514e+10 8.8994e-220 0
C -8.63606e-215 -1.1338e+191 0
C 2.70494e-251 -1.45906e-98 0
C -3.66391e-129 -8.52325e+108 0
C -2.38646e-272 8.88207e+104 0
C -2.28499e+132 8.5454e+277 0
C 2.67861e-292 2.8929e+25 0
C -3.18169e+213 -3.06e-233 0
C 4.02857e-83 5.74084e-76 0
C 1.86181e+13 -1.85861e-118 -24.745
C -1.13037e-224 8.89696e+177 -407.641
44
Created by MSTRJ
C -3.53857e-147 2.7054e+298 2.63118e-188
C 3.85472e-90 -7.0671e-305 -4.69843e-277
C 4.75403e-87 -1.59348e-62 5.46547e+91
C -1.91188e-235 -1.47928e-230 2.75121e+205
C 3.74568e+09 1.28428e-131 -1.94576e-97
C 5.2961e+191 -1.94867e+224 -2.18926e-260
C 2.14777e-08 3.75313e+128 2.13079e+217
C 8.46904e+269 -8.6416e+69 -1.56615e-102
C -1.40887e-93 1.94829e-296 -3.26011e-292
C 2.23195e-143 -8.71426e+145 -1.55776e-236
C -2.31515e+109 -4.14485e+262 -2.86819e-278
C -3.53857e-147 1.86546e+211 -9.75882e+61
C 3.85472e-90 -1.142e-13 2.40894e-291
C 4.75403e-87 -1.53405e-302 -7.79166e+205
C -1.91188e-235 -2.29401e+284 8.13947e+33
C 3.74568e+09 7.13738e-123 1.48045e-201
C 5.2961e+191 5.83591e-86 4.97158e-283
C 2.14777e-08 -1.88802e-220 -1.37964e+133
C 8.46904e+269 1.00555e+148 -9.98491e-51
C -1.40887e-93 2.89334e+16 1.44493e-145
C 2.23195e-143 -1.07897e+74 1.0179e-117
C -2.31515e+109 4.25752e+74 -1.34317e-138
C -3.53857e-147 -1.16729e-231 7.86897e+31
C 3.85472e-90 -4.63e-267 7.15326e+163
C 4.75403e-87 -3.5355e-218 -7.03e+103
C -1.91188e-235 7.93139e+52 4.08773e-291
C 3.74568e+09 -4.37454e+238 5.7431e+208
C 5.29609e+191 8.81877e+112 -1.00814e+168
C 2.14777e-08 2.48984e+12 2.96117e+67
C 7.47473e-312 7.47474e-312 1.04402e-311
C -8.64159e+69 -1.56615e-102 0
C 1.94829e-296 -3.26011e-292 0
C -8.71426e+145 -1.55776e-236 0
C -4.14484e+262 -2.86819e-278 0
C 1.86546e+211 -9.75882e+61 0
C -1.142e-13 2.40894e-291 0
C -1.53405e-302 -7.79166e+205 0
C -2.29401e+284 8.13947e+33 0
C 7.13738e-123 1.48045e-201 0
C 5.83591e-86 4.97158e-283 0
C -1.88802e-220 -1.37964e+133 0
C 4.99691e-200 -1.18585e-106 -24.1716
C 3.3776e+87 4.15852e-189 -410.566
C -3.68652e-265 3.65042e-26 -25.6691
44
Created by MSTRJ
C -3.60847e+74 -9.98377e-222 5.1005e+237
C 8.0718e+184 8.15536e-25 2.87184e-07
C -4.99662e+93 3.57812e+84 -2.71617e+181
C -1.48186e-173 3.50341e+37 1.75268e-205
C -1.69843e-221 6.63544e-203 5