91
Created by MSTRJ
C -5.18051e-75 1.66383e-172 1.94959e-300
C -5.74159e+31 1.10431e-16 -1.13476e+201
C 7.75659e+207 2.54445e-64 1.06089e+34
C -9.13321e+266 7.03039e-135 -1.14918e+170
C -1.55742e+247 -1.26702e-229 5.38635e+177
C 4.42476e+183 -1.16655e-95 5.19564e-123
C 3.27935e+37 -3.28917e+304 7.74096e+285
C 9.02499e-101 -4.5746e+177 -1.7764e-257
C -4.49872e-52 3.7102e-34 -1.1824e+185
C 3.003e+179 2.12781e+155 -5.463e-30
C -1.73004e-139 -1.83735e-299 -8.81522e+08
C 2.71963e-192 -5.41342e-281 1.07432e-261
C 4.61314e+210 1.75874e+273 2.04692e+164
C -4.28654e-278 -5.19228e+140 1.3114e+213
C -9.93422e-51 -2.83572e-226 -5.49718e-183
C 2.19984e+296 -1.43114e+255 3.39125e-155
C 1.95681e-263 -1.68784e+96 1.79193e+241
C 8.24445e+196 6.77882e+172 5.86889e-129
C -3.58505e-209 -3.488e+34 1.63825e+91
C 5.6171e+107 1.63053e+28 2.05814e-115
C 2.59984e-59 0.00364544 2.18055e+46
C 2.56867e+250 -6.06123e+169 1.28371e+73
C -7.41511e+173 -1.36707e+44 6.82744e+66
C 3.50656e+249 1.59938e+124 3.59499e-210
C -316372 -5.01398e+251 -2.34712e-66
C 4.67303e+179 -5.24313e-214 3.57499e+114
C -5.25197e-166 2.39444e+203 -1.04199e-272
C -4.12802e-59 5.97808e+185 -3.77707e+71
C 5.45558e+45 2.90865e-75 7.05503e-28
C 2.66897e-139 6.70902e+225 7.63626e-302
C -1.39574e+287 2.82398e+261 -8.77872e+67
C 2.32656e-218 -8.10539e-153 -7.10155e+115
C 6.36487e-193 -9.94365e+186 2.52283e-107
C -2.24932e+91 7.57784e+107 1.2957e-73
C -1.40654e+40 2.45716e-209 5.32029e+287
C 3.35055e+62 9.43343e-224 -8.49391e+49
C 1.47495e+247 -2.28459e-110 -3.54111e-301
C 2.04929e+176 1.04364e-54 3.04993e+43
C -1.02597e-308 -1.07063e-70 4.5806e+10
C 1.15183e-144 8.12212e+275 4.38974e+271
C 5.70893e+146 9.49986e+63 -1.52429e-260
C 8.2622e+86 -5.57341e-77 1.83394e+204
C 2.6541e+257 -1.95399e-143 9.79584e-167
C -8.08465e-128 3.69239e-92 1.4204e-147
C -1.5604e+100 2.25003e+93 -3.61142e-165
C 1.627e-289 5.26752e+200 -2.90956e-170
C 1.66757e+98 8.88347e+196 -6.23973e+191
C 1.10374e+229 4.38191e-256 -4.48242e+78
C 7.39026e-177 -2.69559e+252 2.01115e-17
C -6.32712e-131 -4.13487e-51 -3.11237e-158
C -7.40971e-136 -3.87415e-112 4.10229e+71
C 1.19665e-168 1.20368e-71 -4.79578e-19
C -3.82272e-280 2.5349e-95 -1.50359e-15
C -3.09679e-275 3.80259e-80 -6.73329e-166
C 4.18747e-69 -7.14939e-177 -1.20443e-56
C 4.59932e-218 -1.57187e-276 2.13012e+133
C -3.01682e+280 9.82103e+47 -4.54677e+46
C -3.77113e-226 -1.67074e+247 1.55322e-194
C 4.33725e-239 -6.74077e-157 -1.284e-201
C -3.29866e+181 -2.96614e-297 -8.35738e+276
C -3.49227e-144 -2.07771e+304 1.80211e-208
C -2.78481e+56 5.74281e+113 -7.37382e-170
C 9.18209e+287 3.79168e-101 2.35723e+91
C -4.22919e-222 1.07923e+230 -1.05296e+73
C 3.53359e+36 8.17412e+84 -3.65922e+168
C -1.37654e+133 2.23106e+229 7.86973e+91
C -1.07735e-217 8.41467e-218 -3.61495e-15
C 1.1323e-63 -2.23566e+113 5.46115e-221
C 1.39473e-162 6.03094e-123 -9.40492e+201
C -1.79191e-93 1.37747e+129 4.915e-32
C -2.56811e-19 -8.52398e-168 -1.04484e+187
C 9.85205e-189 1.39098e-106 -1.61281e-291
C 3.65733e-252 4.8524e+142 -4.27161e-78
C 8.64466e+191 4.29655e-16 -1.54935e+290
C -3.2287e-228 -5.95921e-19 -6.60897e+49
C -2.93218e-217 -3.42957e+100 -5.54098e-254
C -8.83093e-202 8.12516e+188 2.90018e-286
C 1.77228e-301 -1.7151e-290 6.4532e+271
C -2.94475e-216 -2.7406e-153 8.8239e-82
C 1.76617e-254 6.91814e+174 5.23561e+71
C 6.62836e-132 -1.78125e+78 -1.36854e-34
C -2.68467e+298 5.71232e+171 -2.15505e-30
C -9.43615e+174 -3.5352e-291 6.57707e+211
C -8.04514e+236 -4.09782e-18 1.57501e-204
C -9.5583e+214 6.50929e-08 -1.054e+92
C 2.19822e-222 8.94893e-94 -0.000121373
C -3.96046e+226 8.74818e+127 7.22005e+291
C -4.74141e-280 2.03529e+38 9.61766e-24
C 1.14586e+165 -1.26213e+156 -5.80186e+184
C 1.54534e-311 1.54534e-311 1.54534e-311
C 8.32943e+183 -1.1438e-92 -2.18698e-140
91
Created by MSTRJ
C 1.19275e+82 35.5937 0
C 7.8853e+10 -4.81e-291 0
C -1.15302e-264 1.00237e+66 0
C 2.82253e+37 8.22852e-93 0
C -1.03935e+11 1.14345e-92 63.8309
C -8.36213e-110 -3.9301e+16 0
C -4.70001e-222 2.28293e+07 0
C 6.58736e+182 2.91065e-252 0
C -3.94338e-150 -1.07227e+201 0
C -4.61076e-269 1.15116e+291 0
C -1.77812e+12 -4.42987e+53 0
C -1.74036e-63 6.64221e+168 0
C -2.94481e+191 4.20213e+222 0
C -1.12087e+185 -1.44021e-296 0
C -3.71641e+143 -1.45372e+186 0
C 2.35307e+191 3.40219e+60 0
C 3.32927e+23 1.16652e-129 0
C 4.3258e+20 6.17902e+233 0
C 1.57432e+296 -4.65518e-289 0
C 2.58388e+252 1.19289e+300 0
C -2.08111e-69 7.24038e+11 0
C -1.75884e-302 7.86247e-276 0
C 4.09469e-285 -1.36352e-182 0
C 3.10584e+86 -4.45255e+298 0
C 3.46627e-186 5.24409e-274 0
C -1.64387e+253 2.52635e-304 0
C 2.04931e-139 6.10751e-108 0
C 1.7044e-243 -1.21071e-237 0
C -6.53579e+168 1.69839e+122 0
C 1.00205e+31 5.93637e-196 153.606
C -2.86196e+222 -5.63793e-210 0
C -3.09817e-273 3.15454e-158 0
C -5.22317e-244 -6.98933e-294 0
C 2.35691e+122 -5.41624e-254 0
C 2.34569e+62 -2.97218e-246 4.94066e-324
C 7.07124e+232 -3.08127e+151 0
C -3.53088e+256 -2.31994e+64 1.04402e-311
C -8.26491e-278 -3.93533e-73 -0.00343355
C 3.56202e+44 -2.29802e+44 5494.94
C 1.18551e-238 1.90201e-167 0
C -4.2804e+35 -1.9975e+11 0
C 7.20546e+48 -1.43911e-21 0
C 5.66412e-292 2.81136e-208 0
C -2.14492e-44 8.02034e+231 0
C -7.07526e+86 -2.45476e-127 0
C 2.9782e-202 -3.06645e+181 0
C -9.75787e+39 2.12471e-143 0
C 3.74987e+183 -1.76417e+236 0
C 5.33408e-231 3.3258e-130 0
C -1.1808e+147 2.1665e+217 2.03712e-312
C -0.761109 5.28884e-268 0
C -5.20832e-124 -9.91818e-31 0
C -1.5172e+67 -6.40316e+125 17.6463
C -4.32232e+120 -5.31759e+42 17.6463
C 1.25719e-52 -1.41031e+262 17.6463
C 7.29638e+61 -1.21467e+227 0
C 6.27723e-28 -1.60341e+199 0
C -9.39529e+259 -1.10729e+135 0
C -3.32528e-24 -6.66134e-16 0
C -3.81879e+291 2.00036e+107 0
C -1.56559e+201 -3.59201e-236 0
C 1.93569e-218 1.69983e+224 0
C -1.15795e-178 1.92593e+213 0
C -2.67502e+150 1.88938e-177 0
C 1.41203e+28 -6.37041e+183 0
C 2.86513e+110 -1.29851e-13 0
C 1.5464e-311 1.04402e-311 0
C -9.5551e-217 9.88131e-324 0
C 4.67047e+253 298 0
C -4.73167e+147 0 0
C -8.26652e+242 0 0
C -8.73746e-162 0 0
C -1.21382e+300 0 3.73471e-312
C -2.35349e+170 153.606 5.23816e-315
C 8.94909e-225 24.0553 -3.01881e+205
C -3.53573e-206 46.2113 -1.38175e-111
C 6.91323e+46 19.5087 3.69114e-219
C -4.44849e+151 0 -8.63618e-243
C -4.3983e-104 63.8309 -1.78898e-276
C -2.2125e+08 0 -1.33867e+141
C 2.51632e-64 0 0
C -1.00478e-218 0 0
C -5.35405e+180 0 0
C 3.72407e+107 0 0
C -1.59761e-279 0 0
C 3.31996e-239 0 0
C 1.43295e+252 0 0
C 3.11099e-264 0 5.73116e-322
C -7.78053e+207 0 1.54534e-311
C 1.76951e-226 0 2.63689e+76
C -0.000334025 0 -1.45392e+301
91
Created by MSTRJ
C 1.9773e+98 -4.86235e-21 1.55699e-99
C 3.85946e-64 -1.06224e+242 2.63176e+198
C -1.59384e+246 -1.6104e-117 -7.72651e-71
C -4.1275e-89 -7.92447e-132 4.19293e+247
C 4.20332e+120 -6.13077e-119 -3.25134e-22
C 2.50117e-254 -5.34548e+129 9.38479e+180
C 7.42e-79 -2.26973e-89 5.04134e-241
C -3.49399e+296 1.02934e+174 -1.87145e-143
C 1.79504e+26 1.5252e+225 1.65573e+178
C -1.93256e+83 1.97817e-260 1.29153e-77
C 2.09429e+289 -6.16044e-160 2.11164e-110
C -3.10823e-212 -1.26715e-216 -7.68019e+260
C 8.50724e+256 -6.0553e+53 8.86573e+54
C -2.77036e+55 4.73074e-106 1.09445e+07
C -8.98094e-282 8.96501e-290 4.29545e-215
C -6.39964e-75 -5.70148e+199 -1.50949e-85
C -4.93729e+125 4.86248e+120 -2.60666e-97
C 1.15112e+111 1.52294e-289 2.28196e-91
C 1.33002e-23 1.33031e+185 -5.61045e+204
C 1.28108e+187 -3.11622e-46 -7.83657e+166
C 1.45069e+177 -1.09041e-198 2.27808e+85
C -7.11648e-161 0.0023162 9.34156e+203
C 6.33435e+22 2.77792e+271 1.05473e+280
C 3.29899e-20 -2.20394e-287 5.05949e+92
C -3.62154e-294 1.44077e+210 1.70177e-142
C 1.16786e+52 -9.85696e+227 8.17569e-295
C -4.03532e-29 1.76903e+227 -3.34991e+101
C -7.51904e-07 5.43189e-151 5.71248e-105
C -5.85553e+252 1.73733e-93 -6.02245e+295
C -8.82891e-232 9.50663e+293 1.12589e-153
C 3.61248e-91 5.10058e-127 -1.11442e+242
C 9.67502e+253 2.22125e+12 2.07222e-55
C 3.06684e+225 6.00194e+132 -2.3984e+169
C -1.05761e+202 -7.2786e-258 -3.82551e-109
C -1.52559e+254 -2.24555e-39 5.61426e-265
C 2.6645e+164 2.31606e-283 -2.55121e+12
C 5.86772e-60 6.10721e-288 -1.7583e-169
C 3.29962e-165 3.6385e+12 -6.94205e-249
C 6.37097e-245 2.73133e+281 -3.30796e-205
C 7.96464e+221 1.23895e-151 3.91623e+233
C 4.85078e-216 -4.51549e-42 2.84165e+159
C -1.60352e+60 -7.45651e-193 1.46893e+193
C 9.089e-291 2.24827e+86 -2.969e-241
C 7.60613e+256 1.50646e+263 -1.79397e+187
C 1.21486e+151 8.1464e+114 -2.01075e+166
C -9.301e-164 1.8394e+151 5.74584e+31
C 4.57266e-79 -2.36125e+45 7.62515e+275
C 7.54382e-47 1.42754e-205 1.19329e-175
C -5.68751e+232 -6.61311e-174 4.84115e+19
C -4.06272e+252 8.89617e+217 -1.36242e-255
C 1.11983e+290 -3.43456e-94 -1.28768e-276
C -1.85447e-242 4.46264e-21 -4.2749e-88
C 2.29757e-197 5.31061e-58 2.65725e+168
C 2.51527e+273 -2.36791e-47 3.77423e+70
C -2.44697e+176 8.93961e+41 6.64864e-132
C 8.4547e-284 5.25834e-230 -0.682679
C -1.65628e+12 1.18809e-94 -1.49646e-189
C 7.31818e+291 3.29514e+81 1.01358e+97
C 1.26188e-81 1.83808e+45 2.13116e+190
C -1.25222e-234 -3.84718e+143 7.10689e+273
C -5.15458e-145 5.42378e-229 7.21723e+104
C 3.22595e+274 -3.33247e+126 2.90081e-102
C 4.12753e+136 4.68102e+13 3.06983e-196
C -5.35501e-133 -2.00404e+58 3349.94
C 4.45161e-241 -6.57601e-171 -6.03887e-300
C 1.54534e-311 1.54534e-311 1.5464e-311
C 8.97136e-14 2.57328e+193 -3.77739e+42
C -2.91063e+10 2.96248e+154 3.65526e-271
C 4.67455e+116 -3.39564e-78 2.23358e+188
C -7.7259e-206 4.57287e+240 6.53547e-123
C 7.8847e-33 -8.07397e+203 -6.20817e-275
C 9.26815e-64 -4.18287e+140 -3.40386e-300
C -8.47608e-145 -3.17253e-165 1.89122e-146
C -5.0892e-150 -1.93591e+300 1.29967e-101
C -7.80029e-290 -3.75568e-250 -1.01688e+18
C -2.18831e-07 7.9001e+118 -3.34161e-51
C -5.15407e+264 -6.37082e-93 -7.34298e+185
C -2.84747e+277 4.5491e+279 7.67889e-207
C -6.63229e-08 1.25938e-50 -2.60714e+307
C 1.19407e-262 1.62299e-129 4.0408e-136
C -7.06347e+174 7.24341e+269 -6.00979e-157
C -6.3459e+47 4.09922e+131 -4.2451e+07
C -4.22014e+26 5.51796e+88 3.88925e+46
C 1.67572e-187 2.68834e-24 -1.6257e+155
C -1.19704e-83 8.00571e-277 2.55988e+60
C -1.02812e+35 -1.09957e-12 5.76485e-68
C 4.21933e+95 -2.57806e+116 -4.13371e-149
C 1.1705e+27 -2.63579e+241 2.72297e-294
C 6.21359e-167 3.4324e+157 -3.92397e+135
C 6.12613e-98 -1.1353e-275 2.01536e-137
C -3.12168e+41 -1.82183e+224 -1.64823e+07
91
Created by MSTRJ
C -1.49121e+145 0 -3.13717e-199
C -8.80128e+285 0 1.57588e+31
C 7.52391e-129 0 -1.08516e-93
C -7.54136e-285 0 -7.9458e-21
C 1.38722e-239 0 -1.3533e+65
C 4.03835e-182 153.05 -1.66973e+134
C -2.11055e-84 0 4.38084e-181
C 2.80341e-200 0 2.17331e+222
C 8.26719e-231 0 -1.43758e+49
C 3.77698e-13 0 -6.66281e-39
C -4.33306e-71 4.94066e-324 2.70243e-194
C -2.39813e-148 0 -0.188627
C -4.52712e-214 1.04402e-311 2.76343e-67
C 5.22207e-206 -0.00759051 8.18156e-66
C 3.82483e-253 5494.94 -2.26021e+294
C -1.61265e+308 0 1.28032e+105
C -3.1128e-204 0 2.49762e+157
C -4.63392e-216 0 8.74557e+125
C 1.45061e+23 0 1.08886e+60
C 2.90989e-105 0 1.87049e-164
C 5.00141e-213 0 -3.26492e+83
C 1.2934e-42 0 -2.40427e-53
C 3.25268e+196 0 1.29481e-201
C 5.4725e-76 0 3.65099e+175
C -3.62731e-202 0 -2.64161e-110
C 1.67711e+307 2.03712e-312 2.07478e+35
C -1.53373e+292 0 -7.67932e+173
C -1.93576e-165 0 1.63981e+83
C -7.5935e-141 17.6463 5.60034e+200
C -1.74547e+45 17.6463 -3.85187e+48
C 9.32013e+221 17.6463 1.6588e-95
C -6.90389e-294 0 1.60891e+285
C -2.51859e-203 0 8.89266e-114
C -8.45005e-249 0 -1.71433e-187
C -4.87372e+188 0 -1.19177e-267
C -1.71048e+187 0 -3.95285e+32
C -4.87445e-169 0 3.95933e+40
C -6.41434e-83 0 2.65189e+212
C -0.000173941 0 -5.59056e-88
C 3.14087e+141 0 1.86358e+23
C 5.73906e+172 0 1.68757e-223
C -9.83645e+87 0 -7.48282e-174
C 1.04402e-311 0 1.00925e+44
C 1.4822e-323 0 1.63861e+47
C 298 0 5.57961e-233
C 0 0 -2.05795e+257
C 0 0 -4.07276e-93
C 0 0 8.49578e-172
C 0 3.73471e-312 -6.0826e-195
C 153.05 5.23343e-315 1.90331e+205
C 24.1371 -6.49718e-74 7.78569e+262
C 46.3693 9.01493e-64 -1.59952e+35
C 19.5657 -9.89796e+48 -2.0885e-171
C 0 1.3014e+113 -3.5073e+91
C 62.9781 -8.53199e+75 2.23902e-144
C 0 1.85611e+196 5.68844e+137
C 0 0 -3735.12
C 0 0 -1.01872e+264
C 0 0 -7.34332e+20
C 0 0 2.12871e+157
C 0 0 -3.77574e-205
C 0 0 1.17428e-282
C 0 0 -2.02156e-291
C 0 5.73116e-322 -7.46495e-80
C 0 1.54535e-311 1.54534e-311
C 0 1.43735e+33 -9.67142e-255
C 0 -8.04635e-228 -1.94224e-296
C 0 -3.0161e-88 9.92254e+252
C 0 -1.42112e+64 -7.99944e+95
C 0 5.62327e+51 5.36647e-245
C 0 2.60337e-160 1.46218e-232
C 0 3.96209e-137 -7.01939e-242
C 62.9781 2.66422e-188 5.14287e-158
C 0 1.53272e+273 9.696e-57
C 0 -2.11278e-28 -2.50274e-185
C 0 2.61603e-23 7.86609e-168
C 0 5.63937e-301 2.12339e+272
C 0 1.78986e+12 7.96489e-154
C 0 -3.78747e-233 -2.59892e+236
C 0 2.39899e-291 -0.10448
C 0 1.29247e+219 2.12106e+225
C 0 7.27294e-133 -4.6262e+180
C 0 -1.56298e-72 -1.27481e-211
C 0 -1011.52 5.57126e-291
C 0 -1.71005e-240 -4.14051e+285
C 0 -4.5482e-39 -4.49902e+181
C 0 -4.32161e-212 1.75867e-70
C 0 -8.80998e+218 4.15373e+256
C 0 1.35952e+117 -1.95874e-290
C 0 1.07107e+124 2.15119e+287
C 0 4.18632e+145 1.49028e+75
91
Created by MSTRJ
C 8.93876e-228 6.69862e+150 -6.2697e-267
C 4.63435e+307 1.83836e+90 -1.03619e-42
C -7.99857e+265 -1.17734e-226 3.97563e+246
C -5.88212e-187 4.4766e-230 -5.87399e-222
C 5.19128e+61 8.03519e+38 1.49811e-172
C -3.02453e+213 -5.72391e-289 3.02042e+129
C 1.3384e+127 2.62181e-235 -2.86256e+63
C 1.17214e+159 8.56932e-134 -2.72685e+250
C 5.89748e-138 2.57245e-40 -8.13133e-115
C 2.38488e-18 -1.4653e+249 -1.75795e+190
C 2.2122e+129 -8.67276e+289 9.7721e-11
C 1.96757e+65 2.2896e+39 -6.18985e+55
C 3.36122e+61 3.8792e-81 -1.52688e-15
C -5.61622e+40 -7.72453e-250 1.97244e+197
C -2.37248e+134 3.88025e-280 1.54811e+119
C -0.245798 3.84185e-118 3.21027e-227
C -1.09441e+150 1.13935e+38 7.49305e+202
C -1.55162e+95 -2.87438e-235 1.48276e-278
C -1.16593e-128 0.117654 -5.72804e-137
C 1.43145e+182 -6.17615e+180 -4.23362e-198
C -3.19981e+86 -4.89134e+248 -2.14263e+273
C -5.2373e-79 4.97649e-108 -8.70823e-299
C 4.83232e+32 7.85075e-26 6.31057e+122
C -3.17187e+267 6.09861e+86 -4.759e+44
C -7.67938e-176 5.72613e+290 -4.04327e-308
C -1.55681e-261 1.94321e-186 -1.28464e-82
C 1.10203e+257 3.5252e-32 -6.20153e+156
C 5.72609e+124 2.44049e+225 -9.27309e-183
C 5.53688e-197 5.24465e+62 -4.04762e-230
C -6.63346e+85 9.35252e+138 4.63764e-98
C 3.73927e+257 -4.7216e-245 -1.44978e-192
C 1.20842e-283 3.82108e-166 4.41705e+17
C 7.53823e+305 3.37739e-60 4.43642e+206
C 6.30449e+96 4.22246e+248 3.49329e+236
C 7.30414e-33 7.5742e+164 -1.14038e+23
C 2.01251e+255 5.05891e-91 4.37838e+295
C -5.653e-226 -0.0379372 3.72953e-201
C -4.40905e+127 6.09088e+122 3.94551e+54
C -1.35988e+148 5.82621e-26 1.03111e-282
C 5.32311e+130 9.64063e-133 1.93788e+71
C -3.64146e-146 2158.18 7.54957e+91
C 1.54534e-311 1.5464e-311 1.5464e-311
C 5.85797e-202 -2.32887e-168 -3.77934e-99
C -1.87103e-300 -8.14894e-207 1.27405e-285
C 8.00573e-75 1.12992e-306 5.48582e+264
C 2.21163e-236 2.73904e+42 1.71514e+105
C -4.30841e-73 3.64732e-95 -1.13201e-305
C -9.88027e+294 -2.99789e+97 9.50812e-244
C -1.42725e-285 1.3743e-39 -402836
C 1.74172e-252 1.08937e-242 1.10247e-35
C 1.43798e-183 7.9485e-275 -2.85683e-06
C 5.09821e-288 -2.85664e+118 -2.92104e-173
C -6.05224e-82 -5.68545e-210 -4.2003e+129
C -5.37093e-65 9.01795e+283 3.00733e-307
C 3.17752e+86 2.03587e-143 -3.39771e+91
C 5.01562e+211 -1.08747e+141 -4.22652e-131
C -1.05875e-282 -5.49303e-288 2.64975e+292
C 7.9735e+104 1.35667e+47 8.61144e+07
C -1.87772e-227 1.92693e+182 -5.70516e-146
C 3.5752e+222 -3.31676e-129 -5.86899e-116
C -1.04226e+142 3.44961e+54 9.79958e-126
C -4.25735e+252 3.9704e+78 -2.52931e+226
C -9.42945e+259 2.17919e+193 -0.417236
C -1.40139e-193 9.18523e+285 -2.02352e+140
C -2.95381e-241 1.57772e-29 2.3277e-53
C 7.61813e+37 1.35993e-237 4.68132e-226
C -1.80911e-152 -5.94691e-32 -1.35139e-184
C 2.93301e+135 -1.10791e+60 1.65774e-42
C 4.67517e-276 1.75499e-199 -7.89157e-255
C 1.98673e+203 -1.72305e-235 -1.36897e-07
C 7.24786e+201 8.29956e+23 -7.21983e+16
C 6.63252e-260 1.59374e-61 -5.05865e+249
C 1.89102e+26 -3.55648e-70 -1.5873e-121
C -6.29133e-301 9.918e+244 2.40221e+223
C -7.10589e+254 -1.62576e-59 1.15552e+184
C -4.09112e+197 -1.32106e+307 2.10051e-183
C -1.87368e+12 -1.72855e-132 -2.22675e-237
C 1.13288e-36 2.25863e-229 -3.73182e-56
C 7.77879e+170 -3.03859e-128 -4.61667e+10
C -4.56131e+09 3.27868e+222 6.61288e-143
C 2.10075e-141 -1.77784e+37 7.98389e-14
C 7.30353e+62 6.9099e+187 -4.13546e-180
C -1.53068e-122 -2.02254e-261 3.06771e+159
C -9.89929e+129 -1.22671e-185 1.42811e+179
C 9.02152e+76 -9.13768e+304 6.50688e-65
C 1.08766e+251 -4.78227e+267 -2.80996e-238
C -5.76117e+244 3.51361e-67 2.0316e-24
C 5.38276e-281 6.95479e-102 5.62144e+37
C -1.40711e+85 -2.49738e+242 -1.25346e+39
C -5.96389e-286 -1.00832e+182 2.17159e+226
C 6.59721e-72 -2.17193e+113 -3.13072e+239
91
Created by MSTRJ
C 8.93876e-228 6.69862e+150 -6.2697e-267
C 4.63435e+307 1.83836e+90 -1.03619e-42
C -7.99857e+265 -1.17734e-226 3.97563e+246
C -5.88212e-187 4.4766e-230 -5.87399e-222
C 5.19128e+61 8.03519e+38 1.49811e-172
C -3.02453e+213 -5.72391e-289 3.02042e+129
C 1.3384e+127 2.62181e-235 -2.86256e+63
C 1.17214e+159 8.56932e-134 -2.72685e+250
C 5.89748e-138 2.57245e-40 -8.13133e-115
C 2.38488e-18 -1.4653e+249 -1.75795e+190
C 2.2122e+129 -8.67276e+289 9.7721e-11
C 1.96757e+65 2.2896e+39 -6.18985e+55
C 3.36122e+61 3.8792e-81 -1.52688e-15
C -5.61622e+40 -7.72453e-250 1.97244e+197
C -2.37248e+134 3.88025e-280 1.54811e+119
C -0.245798 3.84185e-118 3.21027e-227
C -1.09441e+150 1.13935e+38 7.49305e+202
C -1.55162e+95 -2.87438e-235 1.48276e-278
C -1.16593e-128 0.117654 -5.72804e-137
C 1.43145e+182 -6.17615e+180 -4.23362e-198
C -3.19981e+86 -4.89134e+248 -2.14263e+273
C -5.2373e-79 4.97649e-108 -8.70823e-299
C 4.83232e+32 7.85075e-26 6.31057e+122
C -3.17187e+267 6.09861e+86 -4.759e+44
C -7.67938e-176 5.72613e+290 -4.04327e-308
C -1.55681e-261 1.94321e-186 -1.28464e-82
C 1.10203e+257 3.5252e-32 -6.20153e+156
C 5.72609e+124 2.44049e+225 -9.27309e-183
C 5.53688e-197 5.24465e+62 -4.04762e-230
C -6.63346e+85 9.35252e+138 4.63764e-98
C 3.73927e+257 -4.7216e-245 -1.44978e-192
C 1.20842e-283 3.82108e-166 4.41705e+17
C 7.53823e+305 3.37739e-60 4.43642e+206
C 6.30449e+96 4.22246e+248 3.49329e+236
C 7.30414e-33 7.5742e+164 -1.14038e+23
C 2.01251e+255 5.05891e-91 4.37838e+295
C -5.653e-226 -0.0379372 3.72953e-201
C -4.40905e+127 6.09088e+122 3.94551e+54
C -1.35988e+148 5.82621e-26 1.03111e-282
C 5.32311e+130 9.64063e-133 1.93788e+71
C -3.64146e-146 2158.18 7.54957e+91
C 1.54534e-311 1.5464e-311 1.5464e-311
C 5.85797e-202 -2.32887e-168 -3.77934e-99
C -1.87103e-300 -8.14894e-207 1.27405e-285
C 8.00573e-75 1.12992e-306 5.48582e+264
C 2.21163e-236 2.73904e+42 1.71514e+105
C -4.30841e-73 3.64732e-95 -1.13201e-305
C -9.88027e+294 -2.99789e+97 9.50812e-244
C -1.42725e-285 1.3743e-39 -402836
C 1.74172e-252 1.08937e-242 1.10247e-35
C 1.43798e-183 7.9485e-275 -2.85683e-06
C 5.09821e-288 -2.85664e+118 -2.92104e-173
C -6.05224e-82 -5.68545e-210 -4.2003e+129
C -5.37093e-65 9.01795e+283 3.00733e-307
C 3.17752e+86 2.03587e-143 -3.39771e+91
C 5.01562e+211 -1.08747e+141 -4.22652e-131
C -1.05875e-282 -5.49303e-288 2.64975e+292
C 7.9735e+104 1.35667e+47 8.61144e+07
C -1.87772e-227 1.92693e+182 -5.70516e-146
C 3.5752e+222 -3.31676e-129 -5.86899e-116
C -1.04226e+142 3.44961e+54 9.79958e-126
C -4.25735e+252 3.9704e+78 -2.52931e+226
C -9.42945e+259 2.17919e+193 -0.417236
C -1.40139e-193 9.18523e+285 -2.02352e+140
C -2.95381e-241 1.57772e-29 2.3277e-53
C 7.61813e+37 1.35993e-237 4.68132e-226
C -1.80911e-152 -5.94691e-32 -1.35139e-184
C 2.93301e+135 -1.10791e+60 1.65774e-42
C 4.67517e-276 1.75499e-199 -7.89157e-255
C 1.98673e+203 -1.72305e-235 -1.36897e-07
C 7.24786e+201 8.29956e+23 -7.21983e+16
C 6.63252e-260 1.59374e-61 -5.05865e+249
C 1.89102e+26 -3.55648e-70 -1.5873e-121
C -6.29133e-301 9.918e+244 2.40221e+223
C -7.10589e+254 -1.62576e-59 1.15552e+184
C -4.09112e+197 -1.32106e+307 2.10051e-183
C -1.87368e+12 -1.72855e-132 -2.22675e-237
C 1.13288e-36 2.25863e-229 -3.73182e-56
C 7.77879e+170 -3.03859e-128 -4.61667e+10
C -4.56131e+09 3.27868e+222 6.61288e-143
C 2.10075e-141 -1.77784e+37 7.98389e-14
C 7.30353e+62 6.9099e+187 -4.13546e-180
C -1.53068e-122 -2.02254e-261 3.06771e+159
C -9.89929e+129 -1.22671e-185 1.42811e+179
C 9.02152e+76 -9.13768e+304 6.50688e-65
C 1.08766e+251 -4.78227e+267 -2.80996e-238
C -5.76117e+244 3.51361e-67 2.0316e-24
C 5.38276e-281 6.95479e-102 5.62144e+37
C -1.40711e+85 -2.49738e+242 -1.25346e+39
C -5.96389e-286 -1.00832e+182 2.17159e+226
C 6.59721e-72 -2.17193e+113 -3.13072e+239
